Circuit: * C:\Users\Matias Pierdominici\Documents\GitHub\ASSD_TP_1\oscilador\sim\Draft1.asc

Direct Newton iteration for .op point succeeded.
.step k=0.0001
.step k=0.5001
.step k=0.9999

Date: Mon Mar 11 13:19:53 2019
Total elapsed time: 0.184 seconds.

tnom = 27
temp = 27
method = modified trap
totiter = 2444
traniter = 2427
tranpoints = 1134
accept = 1114
rejected = 20
matrix size = 18
fillins = 6
solver = Normal
Matrix Compiler1: 1002 bytes object code size  0.2/0.2/[0.1]
Matrix Compiler2: off  [0.2]/0.2/0.2

