Circuit: * C:\Users\Matias Pierdominici\Documents\GitHub\ASSD_TP_1\oscilador\sim\es la que va.asc

Direct Newton iteration for .op point succeeded.

Date: Thu Mar 14 16:24:20 2019
Total elapsed time: 0.266 seconds.

tnom = 27
temp = 27
method = modified trap
totiter = 78463
traniter = 78455
tranpoints = 18686
accept = 14988
rejected = 3698
matrix size = 18
fillins = 2
solver = Normal
Matrix Compiler1: 922 bytes object code size  0.2/0.2/[0.1]
Matrix Compiler2: off  [0.1]/0.2/0.1

