Circuit: * C:\Users\Matias Pierdominici\Documents\GitHub\ASSD_TP_1\oscilador\sim\osilador con preset, no son independientes.asc

Direct Newton iteration for .op point succeeded.

Date: Sat Mar 09 16:03:12 2019
Total elapsed time: 0.109 seconds.

tnom = 27
temp = 27
method = modified trap
totiter = 27109
traniter = 27097
tranpoints = 6600
accept = 5322
rejected = 1278
matrix size = 19
fillins = 8
solver = Normal
Matrix Compiler1: 1.03 KB object code size  0.4/0.2/[0.1]
Matrix Compiler2: 1.32 KB object code size  0.2/0.2/[0.2]

