Circuit: * C:\Users\Matias Pierdominici\Documents\GitHub\ASSD_TP_1\oscilador\sim\rampa555.asc

Direct Newton iteration for .op point succeeded.

Date: Thu Mar 14 16:05:47 2019
Total elapsed time: 0.051 seconds.

tnom = 27
temp = 27
method = modified trap
totiter = 2507
traniter = 2499
tranpoints = 1146
accept = 1122
rejected = 24
matrix size = 18
fillins = 2
solver = Normal
Matrix Compiler1:      53 opcodes  0.3/[0.2]/0.2
Matrix Compiler2: 1.21 KB object code size  0.2/0.3/[0.2]

